1020 295 8  
10 295 8 2.0 0.0
100 295 8 3.0 0.0
200 296 8 4.0 0.0
300 296 8 6.0 0.0
400 297 8 6.0 0.0
500 297 7 7.0 0.0
600 298 7 7.0 0.0
700 298 7 7.0 0.0
800 299 7 7.0 0.0
900 299 7 7.0 0.0
1000 300 7 7.0 0.0
1100 300 7 7.0 0.0
1200 301 6 9.0 0.0
1300 301 6 10.0 0.0
1400 302 6 10.0 0.0
1500 302 6 10.0 0.0
1600 303 6 10.0 0.0
1700 303 6 10.0 0.0
1800 304 6 11.0 0.0
1900 304 6 11.0 0.0
2000 305 6 11.0 0.0
3000 310 5 11.0 0.0
3500 312 4 12.0 0.0
4000 315 3 13.0 0.0
4500 317 3 15.0 0.0
5000 320 2 18.0 0.0
5500 322 2 19.0 0.0
6000 325 2 19.0 0.0
6500 327 1 20.0 0.0
7000 330 1 28.0 0.0
7500 332 0 28.0 0.0
8000 335 0 28.0 0.0
8500 337 0 29.0 0.0
9000 340 0 35.0 0.0
10000 345 0 34.0 0.0
16000 375 0 13.0 0.0
