1020 295 8  
10 298 8 2.0 0.0
100 301 8 3.0 0.0
200 302 8 4.0 0.0
300 303 8 6.0 0.0
400 303 8 6.0 0.0
500 304 7 7.0 0.0
600 304 7 7.0 0.0
700 304 7 7.0 0.0
800 304 7 7.0 0.0
900 304 7 7.0 0.0
1000 304 7 7.0 0.0
1100 305 7 7.0 0.0
1200 305 6 9.0 0.0
1300 305 6 10.0 0.0
1400 305 6 10.0 0.0
1500 305 6 10.0 0.0
1600 305 6 10.0 0.0
1700 305 6 10.0 0.0
1800 305 6 11.0 0.0
1900 305 6 11.0 0.0
2000 305 6 11.0 0.0
3000 306 5 11.0 0.0
3500 306 4 12.0 0.0
4000 306 3 13.0 0.0
4500 306 3 15.0 0.0
5000 307 2 18.0 0.0
5500 307 2 19.0 0.0
6000 307 2 19.0 0.0
6500 307 1 20.0 0.0
7000 307 1 28.0 0.0
7500 307 0 28.0 0.0
8000 307 0 28.0 0.0
8500 307 0 29.0 0.0
9000 307 0 35.0 0.0
10000 307 0 34.0 0.0
16000 308 0 13.0 0.0
