1020 295 8  
10 297 8 2.0 0.0
100 300 8 3.0 0.0
200 300 8 4.0 0.0
300 300 8 6.0 0.0
400 301 8 6.0 0.0
500 301 7 7.0 0.0
600 301 7 7.0 0.0
700 301 7 7.0 0.0
800 301 7 7.0 0.0
900 301 7 7.0 0.0
1000 301 7 7.0 0.0
1100 302 7 7.0 0.0
1200 304 6 9.0 0.0
1300 304 6 10.0 0.0
1400 304 6 10.0 0.0
1500 306 6 10.0 0.0
1600 306 6 10.0 0.0
1700 306 6 10.0 0.0
1800 307 6 11.0 0.0
1900 301 6 11.0 0.0
2000 300 6 11.0 0.0
3000 307 5 11.0 0.0
3500 308 4 12.0 0.0
4000 312 3 13.0 0.0
4500 318 3 15.0 0.0
5000 316 2 18.0 0.0
5500 321 2 19.0 0.0
6000 321 2 19.0 0.0
6500 322 1 20.0 0.0
7000 326 1 28.0 0.0
7500 324 0 28.0 0.0
8000 324 0 28.0 0.0
8500 328 0 29.0 0.0
9000 328 0 35.0 0.0
10000 340 0 34.0 0.0
16000 428 0 13.0 0.0
