1020 295 17  
10 295 17 1.0 0.0
100 295 17 3.0 0.0
200 295 19 4.0 0.0
300 295 19 6.0 0.0
400 295 19 6.0 0.0
500 295 19 7.0 0.0
600 295 19 7.0 0.0
700 295 19 7.0 0.0
800 295 19 7.0 0.0
900 295 19 15.5 0.0
1000 295 18 15.5 0.0
1100 295 18 15.5 0.0
1200 295 18 15.5 0.0
1300 295 18 15.5 0.0
1400 296 17 15.5 0.0
1500 296 17 15.5 0.0
1600 297 16 15.5 0.0
1700 297 15 15.5 0.0
1800 298 14 15.5 0.0
1900 298 14 15.5 0.0
2000 299 13 15.5 0.0
3000 304 9 15.5 0.0
3500 306 8 15.5 0.0
4000 309 7 15.5 0.0
4500 311 6 24.0 0.0
5000 314 5 27.5 0.0
5500 316 4 31.0 0.0
6000 319 4 31.0 0.0
6500 321 3 35.0 0.0
7000 324 2 39.0 0.0
7500 326 1 39.0 0.0
8000 329 1 40.0 0.0
8500 331 1 47.0 0.0
9000 334 1 50.0 0.0
10000 339 1 51.0 0.0
16000 369 1 26.0 0.0
