1020 295 8  
10 295 8 2.0 0.0
100 295 8 3.0 0.0
200 295 8 4.0 0.0
300 295 8 6.0 0.0
400 295 8 6.0 0.0
500 295 7 7.0 0.0
600 295 7 7.0 0.0
700 295 7 7.0 0.0
800 295 7 7.0 0.0
900 295 7 7.0 0.0
1000 295 7 7.0 0.0
1100 295 7 7.0 0.0
1200 295 6 9.0 0.0
1300 295 6 10.0 0.0
1400 295 6 10.0 0.0
1500 295 6 10.0 0.0
1600 295 6 10.0 0.0
1700 296 6 10.0 0.0
1800 296 6 11.0 0.0
1900 297 6 11.0 0.0
2000 297 6 11.0 0.0
3000 302 5 11.0 0.0
3500 305 4 12.0 0.0
4000 307 3 13.0 0.0
4500 310 3 15.0 0.0
5000 312 2 18.0 0.0
5500 315 2 19.0 0.0
6000 317 2 19.0 0.0
6500 320 1 20.0 0.0
7000 322 1 28.0 0.0
7500 325 0 28.0 0.0
8000 327 0 28.0 0.0
8500 330 0 29.0 0.0
9000 332 0 35.0 0.0
10000 337 0 34.0 0.0
16000 367 0 13.0 0.0
